@<TRIPOS>MOLECULE
LIG
   57    57     1     0     0
SMALL
bcc


@<TRIPOS>ATOM
      1 C           59.8090    46.0540   -29.7170 ca         1 LIG       0.006700
      2 C1          60.8220    48.5730   -30.4570 ca         1 LIG      -0.209300
      3 C2          60.4980    46.8650   -28.7790 ca         1 LIG      -0.222600
      4 C3          59.6670    46.5170   -31.0210 ca         1 LIG      -0.214000
      5 C4          61.0210    48.1490   -29.1260 ca         1 LIG       0.198100
      6 C5          60.1680    47.7520   -31.3800 ca         1 LIG       0.130100
      7 O           59.9550    48.1800   -32.6690 oh         1 LIG      -0.527100
      8 O1          61.6060    48.9090   -28.3010 oh         1 LIG      -0.544100
      9 O2          60.2950    47.3260   -26.5040 o          1 LIG      -0.832800
     10 O3          60.9600    45.2150   -27.0730 o          1 LIG      -0.832800
     11 C6          59.0520    44.7920   -29.4060 c3         1 LIG      -0.045100
     12 C7          57.6010    45.1430   -29.1400 c3         1 LIG      -0.074400
     13 C8          56.7670    43.8900   -29.0210 c3         1 LIG      -0.074400
     14 C9          55.3190    44.2790   -28.8250 c3         1 LIG      -0.081400
     15 C10         61.2020    49.9770   -30.8440 c3         1 LIG       0.018100
     16 C11         59.1960    51.4730   -31.3190 c2         1 LIG      -0.162400
     17 C12         60.1060    50.9330   -30.4930 c2         1 LIG      -0.134200
     18 C13         58.0750    52.2880   -30.7660 c3         1 LIG      -0.027200
     19 C14         54.4620    43.0390   -28.7430 c3         1 LIG      -0.089100
     20 C15         56.9950    51.4140   -30.1330 c3         1 LIG      -0.030200
     21 C16         60.6800    46.3650   -27.3820 c          1 LIG       0.914200
     22 C17         59.1450    51.2980   -32.7980 c3         1 LIG      -0.049900
     23 C18         57.2070    51.2600   -28.6560 c2         1 LIG      -0.222200
     24 C19         57.3050    50.1200   -27.9560 c2         1 LIG      -0.069400
     25 C20         57.2300    48.7460   -28.5280 c3         1 LIG      -0.079400
     26 C21         57.5090    50.1530   -26.4800 c3         1 LIG      -0.079400
     27 H           59.4740    44.2440   -28.5640 hc         1 LIG       0.060200
     28 H1          59.1150    44.1140   -30.2620 hc         1 LIG       0.060200
     29 H2          57.2020    45.7610   -29.9510 hc         1 LIG       0.050200
     30 H3          57.5210    45.7320   -28.2220 hc         1 LIG       0.050200
     31 H4          57.1150    43.2860   -28.1800 hc         1 LIG       0.034700
     32 H5          56.8710    43.2870   -29.9280 hc         1 LIG       0.034700
     33 H6          54.9860    44.9040   -29.6580 hc         1 LIG       0.039200
     34 H7          55.2130    44.8650   -27.9080 hc         1 LIG       0.039200
     35 H8          59.1250    45.9210   -31.7450 ha         1 LIG       0.129000
     36 H9          61.4620    50.0220   -31.9050 hc         1 LIG       0.044200
     37 H10         62.1140    50.2730   -30.3210 hc         1 LIG       0.044200
     38 H11         60.0100    51.1390   -29.4340 ha         1 LIG       0.153000
     39 H12         57.6270    52.8510   -31.5900 hc         1 LIG       0.030200
     40 H13         58.4570    53.0380   -30.0640 hc         1 LIG       0.030200
     41 H14         54.7750    42.4120   -27.9030 hc         1 LIG       0.023700
     42 H15         54.5520    42.4530   -29.6610 hc         1 LIG       0.023700
     43 H16         53.4130    43.3110   -28.6040 hc         1 LIG       0.023700
     44 H17         56.9110    50.4540   -30.6500 hc         1 LIG       0.038700
     45 H18         56.0320    51.9080   -30.2720 hc         1 LIG       0.038700
     46 H19         60.0290    50.8010   -33.2030 hc         1 LIG       0.029700
     47 H20         59.0800    52.2800   -33.2680 hc         1 LIG       0.029700
     48 H21         58.2610    50.7190   -33.0800 hc         1 LIG       0.029700
     49 H22         57.2800    52.1890   -28.1040 ha         1 LIG       0.103000
     50 H23         60.3100    49.0850   -32.6980 ho         1 LIG       0.410000
     51 H24         57.1820    48.7280   -29.6190 hc         1 LIG       0.051867
     52 H25         56.3460    48.2310   -28.1410 hc         1 LIG       0.051867
     53 H26         58.1120    48.1780   -28.2270 hc         1 LIG       0.051867
     54 H27         57.5440    51.1740   -26.0870 hc         1 LIG       0.051867
     55 H28         58.4490    49.6590   -26.2220 hc         1 LIG       0.051867
     56 H29         56.6930    49.6260   -25.9790 hc         1 LIG       0.051867
     57 H30         61.9310    49.7420   -28.5810 ho         1 LIG       0.473000
@<TRIPOS>BOND
     1     1     3 ar  
     2     1     4 ar  
     3     1    11 1   
     4     2     5 ar  
     5     2     6 ar  
     6     2    15 1   
     7     3     5 ar  
     8     3    21 1   
     9     4     6 ar  
    10     4    35 1   
    11     5     8 1   
    12     6     7 1   
    13     7    50 1   
    14     8    57 1   
    15     9    21 1   
    16    10    21 1   
    17    11    12 1   
    18    11    27 1   
    19    11    28 1   
    20    12    13 1   
    21    12    29 1   
    22    12    30 1   
    23    13    14 1   
    24    13    31 1   
    25    13    32 1   
    26    14    19 1   
    27    14    33 1   
    28    14    34 1   
    29    15    17 1   
    30    15    36 1   
    31    15    37 1   
    32    16    17 2   
    33    16    18 1   
    34    16    22 1   
    35    17    38 1   
    36    18    20 1   
    37    18    39 1   
    38    18    40 1   
    39    19    41 1   
    40    19    42 1   
    41    19    43 1   
    42    20    23 1   
    43    20    44 1   
    44    20    45 1   
    45    22    46 1   
    46    22    47 1   
    47    22    48 1   
    48    23    24 2   
    49    23    49 1   
    50    24    25 1   
    51    24    26 1   
    52    25    51 1   
    53    25    52 1   
    54    25    53 1   
    55    26    54 1   
    56    26    55 1   
    57    26    56 1   
@<TRIPOS>SUBSTRUCTURE
     1 LIG         1 TEMP              0 ****  ****    0 ROOT
