@<TRIPOS>MOLECULE
CBG1
   58    58     1     0     0
SMALL
bcc


@<TRIPOS>ATOM
      1 C1          -6.7200    -1.8480    -1.6820 c3         1 CBG1     -0.093100
      2 C2          -6.8640    -0.3330    -1.8210 c3         1 CBG1     -0.078400
      3 C3          -6.3190     0.4300    -0.6040 c3         1 CBG1     -0.077400
      4 C4          -4.7870     0.3780    -0.5130 c3         1 CBG1     -0.073400
      5 C5          -4.2750     1.2450     0.6440 c3         1 CBG1     -0.047100
      6 C6          -2.7680     1.1430     0.7650 ca         1 CBG1      0.060700
      7 C7          -1.9880     1.9030    -0.1170 ca         1 CBG1     -0.268000
      8 C8          -0.5940     1.9040    -0.0290 ca         1 CBG1      0.194100
      9 C9           0.0500     1.1360     0.9550 ca         1 CBG1     -0.147300
     10 C10         -0.7150     0.3290     1.8230 ca         1 CBG1      0.227100
     11 C11         -2.1300     0.3430     1.7480 ca         1 CBG1     -0.250600
     12 C12         -2.9280    -0.4770     2.6830 c          1 CBG1      0.667700
     13 O1          -2.7730    -0.3480     3.9270 o          1 CBG1     -0.591000
     14 O2          -3.8590    -1.3890     2.1940 oh         1 CBG1     -0.592100
     15 O3          -0.0430    -0.4990     2.7290 oh         1 CBG1     -0.498100
     16 C13          1.5600     1.1110     1.0220 c3         1 CBG1      0.017100
     17 C14          2.0920     0.0010     0.1480 c2         1 CBG1     -0.169200
     18 C15          3.0110     0.1580    -0.8320 c2         1 CBG1     -0.111400
     19 C16          3.6110     1.5030    -1.1600 c3         1 CBG1     -0.062900
     20 C17          3.4680    -1.0590    -1.6110 c3         1 CBG1     -0.040200
     21 C18          4.4320    -1.9250    -0.7920 c3         1 CBG1     -0.041200
     22 C19          5.7270    -1.1900    -0.5280 c2         1 CBG1     -0.172200
     23 C20          6.1640    -0.8130     0.6950 c2         1 CBG1     -0.129400
     24 C21          5.3750    -1.0830     1.9510 c3         1 CBG1     -0.056400
     25 C22          7.4580    -0.0510     0.8240 c3         1 CBG1     -0.056400
     26 O4           0.1530     2.6690    -0.9250 oh         1 CBG1     -0.487100
     27 H1          -5.6900    -2.3250    -2.0630 hc         1 CBG1      0.033700
     28 H2          -6.9930    -2.3610    -0.6350 hc         1 CBG1      0.033700
     29 H3          -7.5110    -2.3570    -2.4280 hc         1 CBG1      0.033700
     30 H4          -6.4590     0.0090    -2.8940 hc         1 CBG1      0.038700
     31 H5          -8.0360    -0.0960    -1.8920 hc         1 CBG1      0.038700
     32 H6          -6.8900     0.0800     0.3870 hc         1 CBG1      0.038700
     33 H7          -6.6980     1.5530    -0.7700 hc         1 CBG1      0.038700
     34 H8          -4.3540     0.7890    -1.5490 hc         1 CBG1      0.051700
     35 H9          -4.3440    -0.7240    -0.3960 hc         1 CBG1      0.051700
     36 H10         -4.4920     2.4120     0.4890 hc         1 CBG1      0.057200
     37 H11         -4.8060     1.1000     1.7050 hc         1 CBG1      0.057200
     38 H12         -2.3860     2.6250    -0.9730 ha         1 CBG1      0.142000
     39 H13         -3.8500    -2.3710     2.8570 ho         1 CBG1      0.447000
     40 H14         -0.2670    -1.6370     2.4890 ho         1 CBG1      0.458000
     41 H15          1.9590     0.8540     2.1200 hc         1 CBG1      0.064700
     42 H16          1.8480     2.2710     1.0110 hc         1 CBG1      0.064700
     43 H18          2.8230     2.0930    -1.8420 hc         1 CBG1      0.043700
     44 H19          4.0150     2.1920    -0.2690 hc         1 CBG1      0.043700
     45 H20          4.5690     1.5150    -1.8810 hc         1 CBG1      0.043700
     46 H21          3.9270    -0.7890    -2.6820 hc         1 CBG1      0.045200
     47 H22          2.5190    -1.6950    -1.9690 hc         1 CBG1      0.045200
     48 H23          3.8980    -2.5740     0.0580 hc         1 CBG1      0.048700
     49 H24          4.7810    -2.8290    -1.4980 hc         1 CBG1      0.048700
     50 H26          5.5840    -2.2340     2.2100 hc         1 CBG1      0.039367
     51 H27          4.2140    -0.8700     2.1270 hc         1 CBG1      0.039367
     52 H28          5.8340    -0.5060     2.8960 hc         1 CBG1      0.039367
     53 H29          7.3560     0.9770     1.4280 hc         1 CBG1      0.039367
     54 H30          8.2560    -0.7600     1.3670 hc         1 CBG1      0.039367
     55 H31          8.0120     0.2980    -0.1790 hc         1 CBG1      0.039367
     56 H32         -0.0240     3.8230    -0.7200 ho         1 CBG1      0.425000
     57 H            1.4710    -1.0100     0.2150 ha         1 CBG1      0.127000
     58 H17          6.3200    -0.9590    -1.3400 ha         1 CBG1      0.125000
@<TRIPOS>BOND
     1     1     2 1   
     2     1    27 1   
     3     1    28 1   
     4     1    29 1   
     5     2     3 1   
     6     2    30 1   
     7     2    31 1   
     8     3     4 1   
     9     3    32 1   
    10     3    33 1   
    11     4     5 1   
    12     4    34 1   
    13     4    35 1   
    14     5     6 1   
    15     5    36 1   
    16     5    37 1   
    17     6     7 ar  
    18     6    11 ar  
    19     7     8 ar  
    20     7    38 1   
    21     8     9 ar  
    22     8    26 1   
    23     9    10 ar  
    24     9    16 1   
    25    10    11 ar  
    26    10    15 1   
    27    11    12 1   
    28    12    13 2   
    29    12    14 1   
    30    14    39 1   
    31    15    40 1   
    32    16    17 1   
    33    16    41 1   
    34    16    42 1   
    35    17    18 2   
    36    17    57 1   
    37    18    19 1   
    38    18    20 1   
    39    19    43 1   
    40    19    44 1   
    41    19    45 1   
    42    20    21 1   
    43    20    46 1   
    44    20    47 1   
    45    21    22 1   
    46    21    48 1   
    47    21    49 1   
    48    22    23 2   
    49    22    58 1   
    50    23    24 1   
    51    23    25 1   
    52    24    50 1   
    53    24    51 1   
    54    24    52 1   
    55    25    53 1   
    56    25    54 1   
    57    25    55 1   
    58    26    56 1   
@<TRIPOS>SUBSTRUCTURE
     1 CBG1        1 TEMP              0 ****  ****    0 ROOT
