@<TRIPOS>MOLECULE
FAD
   62    67     1     0     0
SMALL
bcc


@<TRIPOS>ATOM
      1 PA          -0.3030    16.5080    -9.1980 p5       607 FAD      2.149000
      2 O1A         -0.6450    17.3840    -8.0220 o        607 FAD     -0.543000
      3 O2A         -0.7580    17.1740   -10.4660 o        607 FAD     -0.543000
      4 O5B          1.2320    16.2480    -8.9770 os       607 FAD     -0.648000
      5 C5B          2.1010    16.2020   -10.0060 c1       607 FAD      0.109000
      6 C4B          3.4020    16.7310    -9.4540 c2       607 FAD     -0.175000
      7 O4B          4.3150    16.6210   -10.5080 os       607 FAD     -0.056000
      8 C3B          3.3520    18.2180    -9.3160 c2       607 FAD      0.155000
      9 O3B          4.6010    18.5890    -8.8050 oh       607 FAD     -0.179000
     10 C2B          3.2850    18.6840   -10.7570 c2       607 FAD     -0.102000
     11 O2B          3.7420    19.9910   -10.9420 oh       607 FAD     -0.235000
     12 C1B          4.2050    17.7090   -11.4330 c2       607 FAD      0.150000
     13 N9A          3.6290    17.2810   -12.7180 nh       607 FAD     -0.179000
     14 C8A          2.4410    16.6250   -12.9850 c1       607 FAD      0.191000
     15 N7A          2.3320    16.4040   -14.3190 n2       607 FAD     -0.118000
     16 C5A          3.4510    16.8990   -14.9080 c2       607 FAD     -0.123000
     17 C6A          3.8940    16.9730   -16.2300 c2       607 FAD      0.275000
     18 N6A          3.1460    16.5320   -17.2410 n8       607 FAD     -0.274000
     19 N1A          5.1190    17.5590   -16.5100 n2       607 FAD     -0.331000
     20 C2A          5.9110    18.0630   -15.4990 c1       607 FAD      0.090000
     21 N3A          5.4900    17.9930   -14.2040 n2       607 FAD     -0.172000
     22 C4A          4.2760    17.4420   -13.9100 c2       607 FAD      0.030000
     23 N1           1.8820     7.0380    -5.1490 ns       607 FAD     -0.260000
     24 C2           2.4740     5.7780    -5.2620 c2       607 FAD      0.444000
     25 O2           3.6590     5.6940    -5.6710 o        607 FAD     -0.293000
     26 N3           1.7220     4.6320    -4.9020 ns       607 FAD     -0.343000
     27 C4           0.4200     4.7950    -4.4550 c2       607 FAD      0.388000
     28 O4          -0.2230     3.7980    -4.1480 o        607 FAD     -0.272000
     29 C4X         -0.1640     6.0640    -4.3550 c2       607 FAD     -0.192000
     30 N5          -1.4660     6.2150    -3.9000 n2       607 FAD      0.084000
     31 C5X         -2.0280     7.4850    -3.8070 c2       607 FAD     -0.066000
     32 C6          -3.3430     7.6960    -3.3820 c1       607 FAD      0.040000
     33 C7          -3.8590     9.0110    -3.3240 c2       607 FAD     -0.405000
     34 C7M         -5.2710     9.2660    -2.8530 c1       607 FAD      0.469000
     35 C8          -3.0760    10.1150    -3.7120 c2       607 FAD     -0.348000
     36 C8M         -3.5810    11.5540    -3.6880 c1       607 FAD      0.321000
     37 C9          -1.7760     9.8780    -4.1400 c1       607 FAD      0.011000
     38 C9A         -1.2640     8.5830    -4.1920 c2       607 FAD     -0.104000
     39 N10          0.0210     8.4320    -4.6430 na       607 FAD      0.133000
     40 C10          0.5850     7.1860    -4.7070 c2       607 FAD      0.185000
     41 C1'          0.7540     9.7010    -4.9350 c1       607 FAD     -0.203000
     42 C2'          1.1680    10.0740    -6.3300 c2       607 FAD      0.234000
     43 O2'          2.0740     9.1280    -6.7960 oh       607 FAD     -0.171000
     44 C3'          1.8290    11.4300    -6.2480 c2       607 FAD      0.340000
     45 O3'          0.9040    12.2350    -5.5630 oh       607 FAD     -0.253000
     46 C4'          1.9830    11.9820    -7.6480 c2       607 FAD     -0.245000
     47 O4'          3.0920    12.8800    -7.7090 oh       607 FAD     -0.210000
     48 C5'          0.6560    12.6390    -8.0230 c1       607 FAD      0.448000
     49 O5'          0.6010    12.8680    -9.3960 os       607 FAD     -0.756000
     50 P           -0.6480    13.7120    -9.9320 p5       607 FAD      2.099000
     51 O1P         -0.3830    14.2160   -11.3520 o        607 FAD     -0.808500
     52 O2P         -1.8920    12.8360    -9.8240 o        607 FAD     -0.808500
     53 O3P         -0.8550    15.0050    -8.9540 os       607 FAD     -1.223000
     54 HO3B         4.6310    19.5420    -8.6930 ho       607 FAD      0.247000
     55 HO2B         3.1450    20.6030   -10.5060 ho       607 FAD      0.246000
     56 H6A1         2.2440    16.1180   -17.0580 hn       607 FAD      0.265000
     57 H6A2         3.4820    16.6120   -18.1900 hn       607 FAD      0.265000
     58 H1           2.4160     7.8580    -5.3970 hn       607 FAD      0.292000
     59 H3           2.1290     3.7100    -4.9690 hn       607 FAD      0.284000
     60 HO2'         2.3130     9.3330    -7.7030 ho       607 FAD      0.317000
     61 HO3'         0.9890    12.0890    -4.6180 ho       607 FAD      0.168000
     62 HO4'         3.1790    13.2220    -8.6020 ho       607 FAD      0.209000
@<TRIPOS>BOND
     1     1     2 1   
     2     1     3 1   
     3     1     4 1   
     4     1    53 1   
     5     4     5 1   
     6     5     6 1   
     7     6     7 1   
     8     6     8 1   
     9     7    12 1   
    10     8     9 1   
    11     8    10 1   
    12     9    54 1   
    13    10    11 1   
    14    10    12 1   
    15    11    55 1   
    16    12    13 1   
    17    13    14 1   
    18    13    22 1   
    19    14    15 1   
    20    15    16 1   
    21    16    17 1   
    22    16    22 1   
    23    17    18 1   
    24    17    19 1   
    25    18    56 1   
    26    18    57 1   
    27    19    20 1   
    28    20    21 1   
    29    21    22 1   
    30    23    24 1   
    31    23    40 1   
    32    23    58 1   
    33    24    25 1   
    34    24    26 1   
    35    26    27 1   
    36    26    59 1   
    37    27    28 1   
    38    27    29 1   
    39    29    30 1   
    40    29    40 1   
    41    30    31 1   
    42    31    32 1   
    43    31    38 1   
    44    32    33 1   
    45    33    34 1   
    46    33    35 1   
    47    35    36 1   
    48    35    37 1   
    49    37    38 1   
    50    38    39 1   
    51    39    40 1   
    52    39    41 1   
    53    41    42 1   
    54    42    43 1   
    55    42    44 1   
    56    43    60 1   
    57    44    45 1   
    58    44    46 1   
    59    45    61 1   
    60    46    47 1   
    61    46    48 1   
    62    47    62 1   
    63    48    49 1   
    64    49    50 1   
    65    50    51 1   
    66    50    52 1   
    67    50    53 1   
@<TRIPOS>SUBSTRUCTURE
     1 FAD        1 TEMP              0 ****  ****    0 ROOT
