@<TRIPOS>MOLECULE
LIG
   57    57     1     0     0
SMALL
bcc


@<TRIPOS>ATOM
      1 C1          63.1870    49.0330   -31.9030 c3         1 LIG      -0.094100
      2 C2          62.0040    49.7850   -31.2930 c3         1 LIG      -0.072400
      3 C3          61.6580    49.3010   -29.8770 c3         1 LIG      -0.073400
      4 C4          62.7150    49.7080   -28.8400 c3         1 LIG      -0.078400
      5 C5          62.2790    49.3100   -27.4240 c3         1 LIG      -0.030100
      6 C6          63.3510    49.6610   -26.4140 ca         1 LIG       0.017700
      7 C7          63.4360    50.9930   -25.9850 ca         1 LIG      -0.275000
      8 C8          64.3620    51.3810   -25.0150 ca         1 LIG       0.134100
      9 C9          65.2280    50.4310   -24.4480 ca         1 LIG      -0.173300
     10 C10         65.1890    49.0950   -24.8980 ca         1 LIG       0.202100
     11 C11         64.2370    48.6960   -25.8680 ca         1 LIG      -0.221600
     12 C12         64.1760    47.2870   -26.3100 c          1 LIG       0.915200
     13 O1          64.0270    46.3650   -25.4630 o          1 LIG      -0.831300
     14 O2          64.2780    46.9730   -27.6620 o          1 LIG      -0.831300
     15 O3          66.1280    48.1910   -24.3870 oh         1 LIG      -0.547100
     16 C13         66.2540    50.8630   -23.4260 c3         1 LIG       0.022100
     17 C14         67.5330    51.2620   -24.1210 c2         1 LIG      -0.125200
     18 C15         68.1640    52.4480   -23.9650 c2         1 LIG      -0.159400
     19 C16         67.6300    53.5250   -23.0540 c3         1 LIG      -0.051900
     20 C17         69.4580    52.6940   -24.7140 c3         1 LIG      -0.031200
     21 C18         70.6320    51.9440   -24.0760 c3         1 LIG      -0.047200
     22 C19         70.9340    52.4840   -22.6970 c2         1 LIG      -0.150200
     23 C20         70.7950    51.7850   -21.5470 c2         1 LIG      -0.152400
     24 C21         70.2990    50.3620   -21.5250 c3         1 LIG      -0.050900
     25 C22         71.0950    52.4490   -20.2280 c3         1 LIG      -0.050900
     26 O4          64.4240    52.7160   -24.6140 oh         1 LIG      -0.519100
     27 H1          64.1260    49.2750   -31.3640 hc         1 LIG       0.034033
     28 H2          63.0090    47.9370   -31.8680 hc         1 LIG       0.034033
     29 H3          63.3100    49.3390   -32.9630 hc         1 LIG       0.034033
     30 H4          62.2190    50.8760   -31.2840 hc         1 LIG       0.022200
     31 H5          61.1160    49.6250   -31.9450 hc         1 LIG       0.022200
     32 H6          61.5330    48.1960   -29.8780 hc         1 LIG       0.030700
     33 H7          60.6810    49.7510   -29.5890 hc         1 LIG       0.030700
     34 H8          62.8680    50.8090   -28.8820 hc         1 LIG       0.058200
     35 H9          63.6800    49.2100   -29.0740 hc         1 LIG       0.058200
     36 H10         61.3400    49.8440   -27.1610 hc         1 LIG       0.048700
     37 H11         62.0320    48.2280   -27.3960 hc         1 LIG       0.048700
     38 H12         62.7680    51.7360   -26.4040 ha         1 LIG       0.113000
     39 H14         66.2380    47.2450   -24.7230 ho         1 LIG       0.480000
     40 H15         66.4800    50.0270   -22.7310 hc         1 LIG       0.052700
     41 H16         65.8360    51.6700   -22.7910 hc         1 LIG       0.052700
     42 H17         67.9800    50.5150   -24.7750 ha         1 LIG       0.132000
     43 H18         66.6330    53.8630   -23.4040 hc         1 LIG       0.035700
     44 H19         67.5530    53.1390   -22.0150 hc         1 LIG       0.035700
     45 H20         68.3020    54.4090   -23.0340 hc         1 LIG       0.035700
     46 H21         69.6930    53.7810   -24.7500 hc         1 LIG       0.040200
     47 H22         69.3430    52.3650   -25.7700 hc         1 LIG       0.040200
     48 H23         70.4210    50.8540   -24.0770 hc         1 LIG       0.047700
     49 H24         71.5350    52.0920   -24.7070 hc         1 LIG       0.047700
     50 H25         71.2690    53.5170   -22.6500 ha         1 LIG       0.129000
     51 H26         71.0030    49.7050   -22.0770 hc         1 LIG       0.034367
     52 H27         69.2900    50.3020   -21.9820 hc         1 LIG       0.034367
     53 H28         70.2250    49.9850   -20.4820 hc         1 LIG       0.034367
     54 H29         70.1570    52.5490   -19.6450 hc         1 LIG       0.034367
     55 H30         71.8130    51.8280   -19.6530 hc         1 LIG       0.034367
     56 H31         71.5400    53.4600   -20.3560 hc         1 LIG       0.034367
     57 H32         63.8120    53.4200   -25.0090 ho         1 LIG       0.403000
@<TRIPOS>BOND
     1     1     2 1   
     2     1    27 1   
     3     1    28 1   
     4     1    29 1   
     5     2     3 1   
     6     2    30 1   
     7     2    31 1   
     8     3     4 1   
     9     3    32 1   
    10     3    33 1   
    11     4     5 1   
    12     4    34 1   
    13     4    35 1   
    14     5     6 1   
    15     5    36 1   
    16     5    37 1   
    17     6     7 ar  
    18     6    11 ar  
    19     7     8 ar  
    20     7    38 1   
    21     8     9 ar  
    22     8    26 1   
    23     9    10 ar  
    24     9    16 1   
    25    10    11 ar  
    26    10    15 1   
    27    11    12 1   
    28    12    13 1   
    29    12    14 1   
    30    15    39 1   
    31    16    17 1   
    32    16    40 1   
    33    16    41 1   
    34    17    18 2   
    35    17    42 1   
    36    18    19 1   
    37    18    20 1   
    38    19    43 1   
    39    19    44 1   
    40    19    45 1   
    41    20    21 1   
    42    20    46 1   
    43    20    47 1   
    44    21    22 1   
    45    21    48 1   
    46    21    49 1   
    47    22    23 2   
    48    22    50 1   
    49    23    24 1   
    50    23    25 1   
    51    24    51 1   
    52    24    52 1   
    53    24    53 1   
    54    25    54 1   
    55    25    55 1   
    56    25    56 1   
    57    26    57 1   
@<TRIPOS>SUBSTRUCTURE
     1 LIG         1 TEMP              0 ****  ****    0 ROOT
