@<TRIPOS>MOLECULE
CBG1
   58    58     1     0     0
SMALL
bcc


@<TRIPOS>ATOM
      1 C1          70.2150    44.5730   -24.5590 c3         1 CBG1     -0.093100
      2 C2          69.1230    45.1740   -25.4440 c3         1 CBG1     -0.078400
      3 C3          67.8520    45.5310   -24.6600 c3         1 CBG1     -0.077400
      4 C4          68.0510    46.7390   -23.7330 c3         1 CBG1     -0.073400
      5 C5          66.7330    47.1370   -23.0560 c3         1 CBG1     -0.047100
      6 C6          66.9480    48.2910   -22.0990 ca         1 CBG1      0.060700
      7 C7          67.0310    49.5820   -22.6380 ca         1 CBG1     -0.268000
      8 C8          67.1720    50.7000   -21.8140 ca         1 CBG1      0.194100
      9 C9          67.2320    50.5440   -20.4190 ca         1 CBG1     -0.147300
     10 C10         67.1950    49.2500   -19.8590 ca         1 CBG1      0.227100
     11 C11         67.0320    48.1160   -20.6930 ca         1 CBG1     -0.250600
     12 C12         66.9580    46.7650   -20.0990 c          1 CBG1      0.667700
     13 O1          66.0990    46.5110   -19.2120 o          1 CBG1     -0.591000
     14 O2          67.8310    45.7670   -20.5200 oh         1 CBG1     -0.592100
     15 O3          67.3540    49.1170   -18.4750 oh         1 CBG1     -0.498100
     16 C13         67.4230    51.7540   -19.5330 c3         1 CBG1      0.017100
     17 C14         68.8960    52.0100   -19.3270 c2         1 CBG1     -0.169200
     18 C15         69.5220    53.1830   -19.5760 c2         1 CBG1     -0.111400
     19 C16         68.7850    54.3880   -20.1040 c3         1 CBG1     -0.062900
     20 C17         71.0070    53.2950   -19.2950 c3         1 CBG1     -0.040200
     21 C18         71.2910    53.4180   -17.7940 c3         1 CBG1     -0.041200
     22 C19         70.7460    54.7170   -17.2450 c2         1 CBG1     -0.172200
     23 C20         69.7500    54.8130   -16.3350 c2         1 CBG1     -0.129400
     24 C21         69.0550    53.6000   -15.7710 c3         1 CBG1     -0.056400
     25 C22         69.2700    56.1710   -15.8930 c3         1 CBG1     -0.056400
     26 O4          67.2570    51.9710   -22.3830 oh         1 CBG1     -0.487100
     27 H1          70.6110    45.3320   -23.8530 hc         1 CBG1      0.033700
     28 H2          69.8190    43.7060   -23.9890 hc         1 CBG1      0.033700
     29 H3          71.0550    44.2240   -25.1960 hc         1 CBG1      0.033700
     30 H4          69.5180    46.0730   -25.9650 hc         1 CBG1      0.038700
     31 H5          68.8560    44.4260   -26.2230 hc         1 CBG1      0.038700
     32 H6          67.5150    44.6510   -24.0690 hc         1 CBG1      0.038700
     33 H7          67.0510    45.7710   -25.3940 hc         1 CBG1      0.038700
     34 H8          68.4350    47.5990   -24.3240 hc         1 CBG1      0.051700
     35 H9          68.7980    46.4900   -22.9490 hc         1 CBG1      0.051700
     36 H10         65.9940    47.4370   -23.8310 hc         1 CBG1      0.057200
     37 H11         66.2930    46.2570   -22.5410 hc         1 CBG1      0.057200
     38 H12         66.9750    49.7210   -23.7110 ha         1 CBG1      0.142000
     39 H13         67.7850    44.8350   -20.1260 ho         1 CBG1      0.447000
     40 H14         67.4400    48.2280   -18.0020 ho         1 CBG1      0.458000
     41 H15         66.9560    51.5820   -18.5410 hc         1 CBG1      0.064700
     42 H16         66.8880    52.6240   -19.9640 hc         1 CBG1      0.064700
     43 H17         69.4780    51.1830   -18.9240 ha         1 CBG1      0.127000
     44 H18         68.3540    54.1650   -21.1020 hc         1 CBG1      0.043700
     45 H19         67.9750    54.6750   -19.4000 hc         1 CBG1      0.043700
     46 H20         69.4610    55.2620   -20.2110 hc         1 CBG1      0.043700
     47 H21         71.4440    54.1700   -19.8240 hc         1 CBG1      0.045200
     48 H22         71.5280    52.3970   -19.6940 hc         1 CBG1      0.045200
     49 H23         70.8940    52.5260   -17.2660 hc         1 CBG1      0.048700
     50 H24         72.3910    53.4160   -17.6380 hc         1 CBG1      0.048700
     51 H25         71.1910    55.6270   -17.6390 ha         1 CBG1      0.125000
     52 H26         69.7800    52.9720   -15.2120 hc         1 CBG1      0.039367
     53 H27         68.5960    53.0080   -16.5890 hc         1 CBG1      0.039367
     54 H28         68.2470    53.8970   -15.0690 hc         1 CBG1      0.039367
     55 H29         68.2290    56.3260   -16.2450 hc         1 CBG1      0.039367
     56 H30         69.2880    56.2300   -14.7840 hc         1 CBG1      0.039367
     57 H31         69.9030    56.9930   -16.2920 hc         1 CBG1      0.039367
     58 H32         67.2190    52.1100   -23.3860 ho         1 CBG1      0.425000
@<TRIPOS>BOND
     1     1     2 1   
     2     1    27 1   
     3     1    28 1   
     4     1    29 1   
     5     2     3 1   
     6     2    30 1   
     7     2    31 1   
     8     3     4 1   
     9     3    32 1   
    10     3    33 1   
    11     4     5 1   
    12     4    34 1   
    13     4    35 1   
    14     5     6 1   
    15     5    36 1   
    16     5    37 1   
    17     6     7 ar  
    18     6    11 ar  
    19     7     8 ar  
    20     7    38 1   
    21     8     9 ar  
    22     8    26 1   
    23     9    10 ar  
    24     9    16 1   
    25    10    11 ar  
    26    10    15 1   
    27    11    12 1   
    28    12    13 2   
    29    12    14 1   
    30    14    39 1   
    31    15    40 1   
    32    16    17 1   
    33    16    41 1   
    34    16    42 1   
    35    17    18 2   
    36    17    43 1   
    37    18    19 1   
    38    18    20 1   
    39    19    44 1   
    40    19    45 1   
    41    19    46 1   
    42    20    21 1   
    43    20    47 1   
    44    20    48 1   
    45    21    22 1   
    46    21    49 1   
    47    21    50 1   
    48    22    23 2   
    49    22    51 1   
    50    23    24 1   
    51    23    25 1   
    52    24    52 1   
    53    24    53 1   
    54    24    54 1   
    55    25    55 1   
    56    25    56 1   
    57    25    57 1   
    58    26    58 1   
@<TRIPOS>SUBSTRUCTURE
     1 CBG1        1 TEMP              0 ****  ****    0 ROOT
