@<TRIPOS>MOLECULE
*****
 57 57 0 0 0
SMALL
GASTEIGER

@<TRIPOS>ATOM
      1 C          59.8090   46.0540  -29.7170 C.ar    1  LIG1       -0.0263
      2 C          60.8220   48.5730  -30.4570 C.ar    1  LIG1        0.0399
      3 C          60.4980   46.8650  -28.7790 C.ar    1  LIG1        0.1081
      4 C          59.6670   46.5170  -31.0210 C.ar    1  LIG1       -0.0157
      5 C          61.0210   48.1490  -29.1260 C.ar    1  LIG1        0.1381
      6 C          60.1680   47.7520  -31.3800 C.ar    1  LIG1        0.1241
      7 O          59.9550   48.1800  -32.6690 O.3     1  LIG1       -0.5064
      8 O          61.6060   48.9090  -28.3010 O.3     1  LIG1       -0.5055
      9 O          60.2950   47.3260  -26.5040 O.co2   1  LIG1       -0.2405
     10 O          60.9600   45.2150  -27.0730 O.co2   1  LIG1       -0.2405
     11 C          59.0520   44.7920  -29.4060 C.3     1  LIG1       -0.0267
     12 C          57.6010   45.1430  -29.1400 C.3     1  LIG1       -0.0490
     13 C          56.7670   43.8900  -29.0210 C.3     1  LIG1       -0.0530
     14 C          55.3190   44.2790  -28.8250 C.3     1  LIG1       -0.0559
     15 C          61.2020   49.9770  -30.8440 C.3     1  LIG1       -0.0023
     16 C          59.1960   51.4730  -31.3190 C.2     1  LIG1       -0.0759
     17 C          60.1060   50.9330  -30.4930 C.2     1  LIG1       -0.0805
     18 C          58.0750   52.2880  -30.7660 C.3     1  LIG1       -0.0286
     19 C          54.4620   43.0390  -28.7430 C.3     1  LIG1       -0.0653
     20 C          56.9950   51.4140  -30.1330 C.3     1  LIG1       -0.0308
     21 C          60.6800   46.3650  -27.3820 C.2     1  LIG1        0.3903
     22 C          59.1450   51.2980  -32.7980 C.3     1  LIG1       -0.0438
     23 C          57.2070   51.2600  -28.6560 C.2     1  LIG1       -0.0850
     24 C          57.3050   50.1200  -27.9560 C.2     1  LIG1       -0.0796
     25 C          57.2300   48.7460  -28.5280 C.3     1  LIG1       -0.0440
     26 C          57.5090   50.1530  -26.4800 C.3     1  LIG1       -0.0440
     27 H          59.4740   44.2440  -28.5640 H       1  LIG1        0.0313
     28 H          59.1150   44.1140  -30.2620 H       1  LIG1        0.0313
     29 H          57.2020   45.7610  -29.9510 H       1  LIG1        0.0268
     30 H          57.5210   45.7320  -28.2220 H       1  LIG1        0.0268
     31 H          57.1150   43.2860  -28.1800 H       1  LIG1        0.0265
     32 H          56.8710   43.2870  -29.9280 H       1  LIG1        0.0265
     33 H          54.9860   44.9040  -29.6580 H       1  LIG1        0.0263
     34 H          55.2130   44.8650  -27.9080 H       1  LIG1        0.0263
     35 H          59.1250   45.9210  -31.7450 H       1  LIG1        0.0657
     36 H          61.4620   50.0220  -31.9050 H       1  LIG1        0.0358
     37 H          62.1140   50.2730  -30.3210 H       1  LIG1        0.0358
     38 H          60.0100   51.1390  -29.4340 H       1  LIG1        0.0575
     39 H          57.6270   52.8510  -31.5900 H       1  LIG1        0.0313
     40 H          58.4570   53.0380  -30.0640 H       1  LIG1        0.0313
     41 H          54.7750   42.4120  -27.9030 H       1  LIG1        0.0230
     42 H          54.5520   42.4530  -29.6610 H       1  LIG1        0.0230
     43 H          53.4130   43.3110  -28.6040 H       1  LIG1        0.0230
     44 H          56.9110   50.4540  -30.6500 H       1  LIG1        0.0310
     45 H          56.0320   51.9080  -30.2720 H       1  LIG1        0.0310
     46 H          60.0290   50.8010  -33.2030 H       1  LIG1        0.0274
     47 H          59.0800   52.2800  -33.2680 H       1  LIG1        0.0274
     48 H          58.2610   50.7190  -33.0800 H       1  LIG1        0.0274
     49 H          57.2800   52.1890  -28.1040 H       1  LIG1        0.0572
     50 H          60.3100   49.0850  -32.6980 H       1  LIG1        0.2921
     51 H          57.1820   48.7280  -29.6190 H       1  LIG1        0.0274
     52 H          56.3460   48.2310  -28.1410 H       1  LIG1        0.0274
     53 H          58.1120   48.1780  -28.2270 H       1  LIG1        0.0274
     54 H          57.5440   51.1740  -26.0870 H       1  LIG1        0.0274
     55 H          58.4490   49.6590  -26.2220 H       1  LIG1        0.0274
     56 H          56.6930   49.6260  -25.9790 H       1  LIG1        0.0274
     57 H          61.9310   49.7420  -28.5810 H       1  UNL1        0.2922
@<TRIPOS>BOND
     1     1     3   ar
     2     1     4   ar
     3     1    11    1
     4     2     5   ar
     5     2     6   ar
     6     2    15    1
     7     3     5   ar
     8     3    21    1
     9     4     6   ar
    10     4    35    1
    11     5     8    1
    12     6     7    1
    13     7    50    1
    14     8    57    1
    15     9    21   ar
    16    10    21   ar
    17    11    12    1
    18    11    27    1
    19    11    28    1
    20    12    13    1
    21    12    29    1
    22    12    30    1
    23    13    14    1
    24    13    31    1
    25    13    32    1
    26    14    19    1
    27    14    33    1
    28    14    34    1
    29    15    17    1
    30    15    36    1
    31    15    37    1
    32    16    17    2
    33    16    18    1
    34    16    22    1
    35    17    38    1
    36    18    20    1
    37    18    39    1
    38    18    40    1
    39    19    41    1
    40    19    42    1
    41    19    43    1
    42    20    23    1
    43    20    44    1
    44    20    45    1
    45    22    46    1
    46    22    47    1
    47    22    48    1
    48    23    24    2
    49    23    49    1
    50    24    25    1
    51    24    26    1
    52    25    51    1
    53    25    52    1
    54    25    53    1
    55    26    54    1
    56    26    55    1
    57    26    56    1
