@<TRIPOS>MOLECULE
FAD
   84    89     1     0     0
SMALL
bcc


@<TRIPOS>ATOM
      1 P1          61.8680    61.9730   -34.4530 p5       607 FAD       1.639800
      2 O1          60.3870    61.8930   -34.1880 o        607 FAD      -0.593500
      3 O2          62.0980    62.3670   -35.8850 o        607 FAD      -0.593500
      4 O3          62.3540    62.9330   -33.3060 os       607 FAD      -0.370200
      5 C1          63.3130    63.8570   -33.5120 c3       607 FAD       0.533400
      6 C2          62.9640    65.0050   -32.5960 c3       607 FAD       0.045100
      7 O4          63.9960    65.9330   -32.7670 os       607 FAD      -0.413600
      8 C3          61.8210    65.7930   -33.1490 c3       607 FAD       0.111100
      9 O5          61.5930    66.8210   -32.2260 oh       607 FAD      -0.567800
     10 C4          62.4180    66.4150   -34.3960 c3       607 FAD       0.084100
     11 O6          61.7600    67.5760   -34.8090 oh       607 FAD      -0.551800
     12 C5          63.8090    66.7400   -33.9350 c3       607 FAD       0.210800
     13 N1          64.7790    66.4090   -34.9920 na       607 FAD      -0.288000
     14 C6          65.0640    65.1950   -35.5890 cc       607 FAD       0.400700
     15 N2          66.0580    65.3550   -36.4980 nd       607 FAD      -0.533100
     16 C7          66.4250    66.6620   -36.4760 ca       607 FAD      -0.235200
     17 C8          67.3670    67.4130   -37.1820 ca       607 FAD       0.766200
     18 N3          68.1160    66.8670   -38.1390 nv       607 FAD      -0.957500
     19 N4          67.4990    68.7680   -36.9200 nb       607 FAD      -0.792000
     20 C9          66.7180    69.3840   -35.9630 ca       607 FAD       0.690900
     21 N5          65.7980    68.6600   -35.2650 nb       607 FAD      -0.742000
     22 C10         65.6350    67.3300   -35.5260 ca       607 FAD       0.471800
     23 N6          66.4720    57.0040   -26.3930 nc       607 FAD      -0.428400
     24 C11         67.5980    56.7550   -25.6060 c        607 FAD       0.853900
     25 O7          68.2710    57.7260   -25.1770 o        607 FAD      -0.583500
     26 N7          67.9430    55.4140   -25.3060 ns       607 FAD      -0.614500
     27 C12         67.1560    54.3890   -25.8090 c        607 FAD       0.611000
     28 O8          67.4630    53.2320   -25.5460 o        607 FAD      -0.569500
     29 C13         66.0340    54.6530   -26.6030 cd       607 FAD       0.306800
     30 N8          65.2500    53.6190   -27.0950 nc       607 FAD      -0.515000
     31 C14         64.1380    53.9020   -27.8830 ca       607 FAD       0.290600
     32 C15         63.3280    52.9020   -28.4280 ca       607 FAD      -0.098300
     33 C16         62.2220    53.2560   -29.2330 ca       607 FAD      -0.108300
     34 C17         61.3220    52.1940   -29.8200 c3       607 FAD      -0.052800
     35 C18         61.9330    54.6050   -29.5170 ca       607 FAD      -0.005300
     36 C19         60.7660    55.0490   -30.3920 c3       607 FAD      -0.065800
     37 C20         62.7590    55.5790   -28.9720 ca       607 FAD      -0.185000
     38 C21         63.8470    55.2320   -28.1730 ca       607 FAD      -0.002600
     39 N9          64.6230    56.2520   -27.6890 na       607 FAD      -0.101100
     40 C22         65.7000    55.9760   -26.8900 cd       607 FAD       0.093400
     41 C23         64.1430    57.6320   -28.0030 c3       607 FAD      -0.013700
     42 C24         64.9150    58.5540   -28.9020 c3       607 FAD       0.100100
     43 O9          66.1450    58.8260   -28.3140 oh       607 FAD      -0.575800
     44 C25         64.1080    59.8250   -29.0310 c3       607 FAD       0.068100
     45 O10         62.8280    59.3950   -29.4170 oh       607 FAD      -0.597800
     46 C26         64.6830    60.6540   -30.1580 c3       607 FAD       0.087100
     47 O11         64.4210    62.0410   -29.9380 oh       607 FAD      -0.610800
     48 C27         64.0810    60.1270   -31.4590 c3       607 FAD       0.143400
     49 O12         64.8020    60.6020   -32.5520 os       607 FAD      -0.572200
     50 P2          64.1980    60.2880   -34.0000 p5       607 FAD       1.578800
     51 O13         64.8520    61.1800   -35.0570 o        607 FAD      -0.825000
     52 O14         64.3750    58.7980   -34.2730 o        607 FAD      -0.825000
     53 O15         62.5960    60.6090   -33.9710 os       607 FAD      -0.790800
     54 H           63.3110    64.1780   -34.5330 h1       607 FAD       0.217200
     55 H1          64.2900    63.4690   -33.3110 h1       607 FAD       0.217200
     56 H2          62.7810    64.6210   -31.6140 h1       607 FAD       0.132700
     57 H3          60.9250    65.2380   -33.3350 h1       607 FAD       0.143700
     58 H4          62.4180    67.3080   -32.0750 ho       607 FAD       0.407000
     59 H5          62.3550    65.7660   -35.2450 h1       607 FAD       0.156700
     60 H6          61.7700    68.2270   -34.0900 ho       607 FAD       0.405000
     61 H7          63.9510    67.7780   -33.7190 h2       607 FAD       0.123700
     62 H8          64.5920    64.3020   -35.3750 h5       607 FAD       0.116800
     63 H9          68.7740    67.4170   -38.6230 hn       607 FAD       0.451800
     64 H10         68.0120    65.9140   -38.3620 hn       607 FAD       0.451800
     65 H11         66.8310    70.3930   -35.7760 h5       607 FAD       0.053100
     66 H12         68.7290    55.2130   -24.7490 hn       607 FAD       0.349500
     67 H13         63.5370    51.9080   -28.2430 ha       607 FAD       0.165000
     68 H14         60.5480    52.6600   -30.3940 hc       607 FAD       0.051033
     69 H15         60.8840    51.6210   -29.0300 hc       607 FAD       0.051033
     70 H16         61.8960    51.5490   -30.4520 hc       607 FAD       0.051033
     71 H17         60.2290    54.1890   -30.7330 hc       607 FAD       0.055700
     72 H18         61.1390    55.5940   -31.2340 hc       607 FAD       0.055700
     73 H19         60.1120    55.6760   -29.8230 hc       607 FAD       0.055700
     74 H20         62.5640    56.5750   -29.1610 ha       607 FAD       0.143000
     75 H21         63.1760    57.5200   -28.4470 h1       607 FAD       0.093700
     76 H22         64.2240    58.1210   -27.0550 h1       607 FAD       0.093700
     77 H23         65.0830    58.1190   -29.8650 h1       607 FAD       0.082700
     78 H24         66.0050    59.2210   -27.4390 ho       607 FAD       0.425000
     79 H25         64.1050    60.4030   -28.1300 h1       607 FAD       0.096700
     80 H26         62.8940    58.8790   -30.2360 ho       607 FAD       0.402000
     81 H27         65.7480    60.5670   -30.2110 h1       607 FAD       0.121700
     82 H28         63.4630    62.1840   -29.8810 ho       607 FAD       0.413000
     83 H29         64.1110    59.0570   -31.4540 h1       607 FAD       0.056200
     84 H30         63.0690    60.4650   -31.5360 h1       607 FAD       0.056200
@<TRIPOS>BOND
     1     1     2 1   
     2     1     3 1   
     3     1     4 1   
     4     1    53 1   
     5     4     5 1   
     6     5     6 1   
     7     5    54 1   
     8     5    55 1   
     9     6     7 1   
    10     6     8 1   
    11     6    56 1   
    12     7    12 1   
    13     8     9 1   
    14     8    10 1   
    15     8    57 1   
    16     9    58 1   
    17    10    11 1   
    18    10    12 1   
    19    10    59 1   
    20    11    60 1   
    21    12    13 1   
    22    12    61 1   
    23    13    14 1   
    24    13    22 1   
    25    14    15 2   
    26    14    62 1   
    27    15    16 1   
    28    16    17 ar  
    29    16    22 ar  
    30    17    18 1   
    31    17    19 ar  
    32    18    63 1   
    33    18    64 1   
    34    19    20 ar  
    35    20    21 ar  
    36    20    65 1   
    37    21    22 ar  
    38    23    24 1   
    39    23    40 2   
    40    24    25 2   
    41    24    26 1   
    42    26    27 1   
    43    26    66 1   
    44    27    28 2   
    45    27    29 1   
    46    29    30 2   
    47    29    40 1   
    48    30    31 1   
    49    31    32 ar  
    50    31    38 ar  
    51    32    33 ar  
    52    32    67 1   
    53    33    34 1   
    54    33    35 ar  
    55    34    68 1   
    56    34    69 1   
    57    34    70 1   
    58    35    36 1   
    59    35    37 ar  
    60    36    71 1   
    61    36    72 1   
    62    36    73 1   
    63    37    38 ar  
    64    37    74 1   
    65    38    39 1   
    66    39    40 1   
    67    39    41 1   
    68    41    42 1   
    69    41    75 1   
    70    41    76 1   
    71    42    43 1   
    72    42    44 1   
    73    42    77 1   
    74    43    78 1   
    75    44    45 1   
    76    44    46 1   
    77    44    79 1   
    78    45    80 1   
    79    46    47 1   
    80    46    48 1   
    81    46    81 1   
    82    47    82 1   
    83    48    49 1   
    84    48    83 1   
    85    48    84 1   
    86    49    50 1   
    87    50    51 1   
    88    50    52 1   
    89    50    53 1   
@<TRIPOS>SUBSTRUCTURE
     1 FAD         1 TEMP              0 ****  ****    0 ROOT
