@<TRIPOS>MOLECULE
FAD
   53    58     1     0     0
SMALL
bcc


@<TRIPOS>ATOM
      1 P1          61.8680    61.9730   -34.4530 p5       607 FAD       2.103000
      2 O1          60.3870    61.8930   -34.1880 o        607 FAD      -0.754500
      3 O2          62.0980    62.3670   -35.8850 o        607 FAD      -0.754500
      4 O3          62.3540    62.9330   -33.3060 os       607 FAD       0.037000
      5 C1          63.3130    63.8570   -33.5120 c1       607 FAD       0.477000
      6 C2          62.9640    65.0050   -32.5960 c2       607 FAD      -0.345000
      7 O4          63.9960    65.9330   -32.7670 os       607 FAD      -0.024000
      8 C3          61.8210    65.7930   -33.1490 c2       607 FAD       0.292000
      9 O5          61.5930    66.8210   -32.2260 o        607 FAD      -0.182000
     10 C4          62.4180    66.4150   -34.3960 c2       607 FAD       0.244000
     11 O6          61.7600    67.5760   -34.8090 o        607 FAD      -0.081000
     12 C5          63.8090    66.7400   -33.9350 c2       607 FAD       0.403000
     13 N1          64.7790    66.4090   -34.9920 nh       607 FAD      -0.222000
     14 C6          65.0640    65.1950   -35.5890 c1       607 FAD       0.243000
     15 N2          66.0580    65.3550   -36.4980 n2       607 FAD      -0.146000
     16 C7          66.4250    66.6620   -36.4760 c2       607 FAD       0.188000
     17 C8          67.3670    67.4130   -37.1820 c2       607 FAD      -0.150000
     18 N3          68.1160    66.8670   -38.1390 n1       607 FAD       0.150000
     19 N4          67.4990    68.7680   -36.9200 n2       607 FAD       0.100000
     20 C9          66.7180    69.3840   -35.9630 c1       607 FAD      -0.115000
     21 N5          65.7980    68.6600   -35.2650 n2       607 FAD       0.020000
     22 C10         65.6350    67.3300   -35.5260 c2       607 FAD       0.048000
     23 N6          66.4720    57.0040   -26.3930 n2       607 FAD      -0.051000
     24 C11         67.5980    56.7550   -25.6060 c2       607 FAD       0.406000
     25 O7          68.2710    57.7260   -25.1770 o        607 FAD      -0.124000
     26 N7          67.9430    55.4140   -25.3060 n2       607 FAD      -0.330000
     27 C12         67.1560    54.3890   -25.8090 c2       607 FAD       0.401000
     28 O8          67.4630    53.2320   -25.5460 o        607 FAD      -0.226000
     29 C13         66.0340    54.6530   -26.6030 c2       607 FAD       0.027000
     30 N8          65.2500    53.6190   -27.0950 n2       607 FAD       0.009000
     31 C14         64.1380    53.9020   -27.8830 c2       607 FAD      -0.097000
     32 C15         63.3280    52.9020   -28.4280 c1       607 FAD      -0.038000
     33 C16         62.2220    53.2560   -29.2330 c2       607 FAD      -0.251000
     34 C17         61.3220    52.1940   -29.8200 c1       607 FAD       0.368000
     35 C18         61.9330    54.6050   -29.5170 c2       607 FAD      -0.300000
     36 C19         60.7660    55.0490   -30.3920 c1       607 FAD       0.451000
     37 C20         62.7590    55.5790   -28.9720 c1       607 FAD       0.197000
     38 C21         63.8470    55.2320   -28.1730 c2       607 FAD      -0.140000
     39 N9          64.6230    56.2520   -27.6890 na       607 FAD       0.173000
     40 C22         65.7000    55.9760   -26.8900 c2       607 FAD      -0.082000
     41 C23         64.1430    57.6320   -28.0030 c1       607 FAD       0.207000
     42 C24         64.9150    58.5540   -28.9020 c2       607 FAD       0.286000
     43 O9          66.1450    58.8260   -28.3140 o        607 FAD      -0.102000
     44 C25         64.1080    59.8250   -29.0310 c2       607 FAD       0.165000
     45 O10         62.8280    59.3950   -29.4170 o        607 FAD      -0.108000
     46 C26         64.6830    60.6540   -30.1580 c2       607 FAD       0.139000
     47 O11         64.4210    62.0410   -29.9380 o        607 FAD      -0.176000
     48 C27         64.0810    60.1270   -31.4590 c1       607 FAD      -0.023000
     49 O12         64.8020    60.6020   -32.5520 os       607 FAD      -0.531000
     50 P2          64.1980    60.2880   -34.0000 p5       607 FAD       2.131000
     51 O13         64.8520    61.1800   -35.0570 o        607 FAD      -0.820500
     52 O14         64.3750    58.7980   -34.2730 o        607 FAD      -0.820500
     53 O15         62.5960    60.6090   -33.9710 os       607 FAD      -1.271000
@<TRIPOS>BOND
     1     1     2 1   
     2     1     3 1   
     3     1     4 1   
     4     1    53 1   
     5     4     5 1   
     6     5     6 1   
     7     6     7 1   
     8     6     8 1   
     9     7    12 1   
    10     8     9 1   
    11     8    10 1   
    12    10    11 1   
    13    10    12 1   
    14    12    13 1   
    15    13    14 1   
    16    13    22 1   
    17    14    15 1   
    18    15    16 1   
    19    16    17 1   
    20    16    22 1   
    21    17    18 1   
    22    17    19 1   
    23    19    20 1   
    24    20    21 1   
    25    21    22 1   
    26    23    24 1   
    27    23    40 1   
    28    24    25 1   
    29    24    26 1   
    30    26    27 1   
    31    27    28 1   
    32    27    29 1   
    33    29    30 1   
    34    29    40 1   
    35    30    31 1   
    36    31    32 1   
    37    31    38 1   
    38    32    33 1   
    39    33    34 1   
    40    33    35 1   
    41    35    36 1   
    42    35    37 1   
    43    37    38 1   
    44    38    39 1   
    45    39    40 1   
    46    39    41 1   
    47    41    42 1   
    48    42    43 1   
    49    42    44 1   
    50    44    45 1   
    51    44    46 1   
    52    46    47 1   
    53    46    48 1   
    54    48    49 1   
    55    49    50 1   
    56    50    51 1   
    57    50    52 1   
    58    50    53 1   
@<TRIPOS>SUBSTRUCTURE
     1 FAD         1 TEMP              0 ****  ****    0 ROOT
