*****
 OpenBabel09302007453D

 57 57  0  0  0  0  0  0  0  0999 V2000
   59.8090   46.0540  -29.7170 C   0  0  0  0  0  0  0  0  0  0  0  0
   60.8220   48.5730  -30.4570 C   0  0  0  0  0  0  0  0  0  0  0  0
   60.4980   46.8650  -28.7790 C   0  0  0  0  0  0  0  0  0  0  0  0
   59.6670   46.5170  -31.0210 C   0  0  0  0  0  0  0  0  0  0  0  0
   61.0210   48.1490  -29.1260 C   0  0  0  0  0  0  0  0  0  0  0  0
   60.1680   47.7520  -31.3800 C   0  0  0  0  0  0  0  0  0  0  0  0
   59.9550   48.1800  -32.6690 O   0  0  0  0  0  0  0  0  0  0  0  0
   61.6060   48.9090  -28.3010 O   0  0  0  0  0  0  0  0  0  0  0  0
   60.2950   47.3260  -26.5040 O   0  5  0  0  0  0  0  0  0  0  0  0
   60.9600   45.2150  -27.0730 O   0  0  0  0  0  0  0  0  0  0  0  0
   59.0520   44.7920  -29.4060 C   0  0  0  0  0  0  0  0  0  0  0  0
   57.6010   45.1430  -29.1400 C   0  0  0  0  0  0  0  0  0  0  0  0
   56.7670   43.8900  -29.0210 C   0  0  0  0  0  0  0  0  0  0  0  0
   55.3190   44.2790  -28.8250 C   0  0  0  0  0  0  0  0  0  0  0  0
   61.2020   49.9770  -30.8440 C   0  0  0  0  0  0  0  0  0  0  0  0
   59.1960   51.4730  -31.3190 C   0  0  0  0  0  0  0  0  0  0  0  0
   60.1060   50.9330  -30.4930 C   0  0  0  0  0  0  0  0  0  0  0  0
   58.0750   52.2880  -30.7660 C   0  0  0  0  0  0  0  0  0  0  0  0
   54.4620   43.0390  -28.7430 C   0  0  0  0  0  0  0  0  0  0  0  0
   56.9950   51.4140  -30.1330 C   0  0  0  0  0  0  0  0  0  0  0  0
   60.6800   46.3650  -27.3820 C   0  0  0  0  0  0  0  0  0  0  0  0
   59.1450   51.2980  -32.7980 C   0  0  0  0  0  0  0  0  0  0  0  0
   57.2070   51.2600  -28.6560 C   0  0  0  0  0  0  0  0  0  0  0  0
   57.3050   50.1200  -27.9560 C   0  0  0  0  0  0  0  0  0  0  0  0
   57.2300   48.7460  -28.5280 C   0  0  0  0  0  0  0  0  0  0  0  0
   57.5090   50.1530  -26.4800 C   0  0  0  0  0  0  0  0  0  0  0  0
   59.4740   44.2440  -28.5640 H   0  0  0  0  0  0  0  0  0  0  0  0
   59.1150   44.1140  -30.2620 H   0  0  0  0  0  0  0  0  0  0  0  0
   57.2020   45.7610  -29.9510 H   0  0  0  0  0  0  0  0  0  0  0  0
   57.5210   45.7320  -28.2220 H   0  0  0  0  0  0  0  0  0  0  0  0
   57.1150   43.2860  -28.1800 H   0  0  0  0  0  0  0  0  0  0  0  0
   56.8710   43.2870  -29.9280 H   0  0  0  0  0  0  0  0  0  0  0  0
   54.9860   44.9040  -29.6580 H   0  0  0  0  0  0  0  0  0  0  0  0
   55.2130   44.8650  -27.9080 H   0  0  0  0  0  0  0  0  0  0  0  0
   59.1250   45.9210  -31.7450 H   0  0  0  0  0  0  0  0  0  0  0  0
   61.4620   50.0220  -31.9050 H   0  0  0  0  0  0  0  0  0  0  0  0
   62.1140   50.2730  -30.3210 H   0  0  0  0  0  0  0  0  0  0  0  0
   60.0100   51.1390  -29.4340 H   0  0  0  0  0  0  0  0  0  0  0  0
   57.6270   52.8510  -31.5900 H   0  0  0  0  0  0  0  0  0  0  0  0
   58.4570   53.0380  -30.0640 H   0  0  0  0  0  0  0  0  0  0  0  0
   54.7750   42.4120  -27.9030 H   0  0  0  0  0  0  0  0  0  0  0  0
   54.5520   42.4530  -29.6610 H   0  0  0  0  0  0  0  0  0  0  0  0
   53.4130   43.3110  -28.6040 H   0  0  0  0  0  0  0  0  0  0  0  0
   56.9110   50.4540  -30.6500 H   0  0  0  0  0  0  0  0  0  0  0  0
   56.0320   51.9080  -30.2720 H   0  0  0  0  0  0  0  0  0  0  0  0
   60.0290   50.8010  -33.2030 H   0  0  0  0  0  0  0  0  0  0  0  0
   59.0800   52.2800  -33.2680 H   0  0  0  0  0  0  0  0  0  0  0  0
   58.2610   50.7190  -33.0800 H   0  0  0  0  0  0  0  0  0  0  0  0
   57.2800   52.1890  -28.1040 H   0  0  0  0  0  0  0  0  0  0  0  0
   60.3100   49.0850  -32.6980 H   0  0  0  0  0  0  0  0  0  0  0  0
   57.1820   48.7280  -29.6190 H   0  0  0  0  0  0  0  0  0  0  0  0
   56.3460   48.2310  -28.1410 H   0  0  0  0  0  0  0  0  0  0  0  0
   58.1120   48.1780  -28.2270 H   0  0  0  0  0  0  0  0  0  0  0  0
   57.5440   51.1740  -26.0870 H   0  0  0  0  0  0  0  0  0  0  0  0
   58.4490   49.6590  -26.2220 H   0  0  0  0  0  0  0  0  0  0  0  0
   56.6930   49.6260  -25.9790 H   0  0  0  0  0  0  0  0  0  0  0  0
   61.9310   49.7420  -28.5810 H   0  0  0  0  0  0  0  0  0  0  0  0
  1  3  2  0  0  0  0
  1  4  1  0  0  0  0
  1 11  1  0  0  0  0
  2  5  2  0  0  0  0
  2  6  1  0  0  0  0
  2 15  1  0  0  0  0
  3  5  1  0  0  0  0
  3 21  1  0  0  0  0
  4  6  2  0  0  0  0
  4 35  1  0  0  0  0
  5  8  1  0  0  0  0
  6  7  1  0  0  0  0
  7 50  1  0  0  0  0
  8 57  1  0  0  0  0
  9 21  1  0  0  0  0
 10 21  2  0  0  0  0
 11 12  1  0  0  0  0
 11 27  1  0  0  0  0
 11 28  1  0  0  0  0
 12 13  1  0  0  0  0
 12 29  1  0  0  0  0
 12 30  1  0  0  0  0
 13 14  1  0  0  0  0
 13 31  1  0  0  0  0
 13 32  1  0  0  0  0
 14 19  1  0  0  0  0
 14 33  1  0  0  0  0
 14 34  1  0  0  0  0
 15 17  1  0  0  0  0
 15 36  1  0  0  0  0
 15 37  1  0  0  0  0
 16 17  2  0  0  0  0
 16 18  1  0  0  0  0
 16 22  1  0  0  0  0
 17 38  1  0  0  0  0
 18 20  1  0  0  0  0
 18 39  1  0  0  0  0
 18 40  1  0  0  0  0
 19 41  1  0  0  0  0
 19 42  1  0  0  0  0
 19 43  1  0  0  0  0
 20 23  1  0  0  0  0
 20 44  1  0  0  0  0
 20 45  1  0  0  0  0
 22 46  1  0  0  0  0
 22 47  1  0  0  0  0
 22 48  1  0  0  0  0
 23 24  2  0  0  0  0
 23 49  1  0  0  0  0
 24 25  1  0  0  0  0
 24 26  1  0  0  0  0
 25 51  1  0  0  0  0
 25 52  1  0  0  0  0
 25 53  1  0  0  0  0
 26 54  1  0  0  0  0
 26 55  1  0  0  0  0
 26 56  1  0  0  0  0
M  CHG  1   9  -1
M  END
$$$$
