@<TRIPOS>MOLECULE
FAD
 86 91 0 0 0
SMALL
GASTEIGER

@<TRIPOS>ATOM
      1 P          -1.6480   -0.6290   -3.2290 P.3     1  UNL1        0.4835
      2 O          -3.0350   -1.0880   -2.9920 O.2     1  UNL1       -0.2269
      3 O          -0.6780   -1.9060   -3.3780 O.3     1  UNL1       -0.3022
      4 O          -1.5950    0.2450   -4.5800 O.3     1  UNL1       -0.2837
      5 C          -2.0360   -0.6050   -5.6400 C.3     1  UNL1        0.0879
      6 C          -2.0090    0.1690   -6.9590 C.3     1  UNL1        0.1134
      7 O          -0.6650    0.5830   -7.2560 O.3     1  UNL1       -0.3456
      8 C          -2.4760   -0.7410   -8.1110 C.3     1  UNL1        0.1135
      9 O          -3.6390   -0.2030   -8.7440 O.3     1  UNL1       -0.3864
     10 C          -1.2770   -0.7480   -9.0950 C.3     1  UNL1        0.1285
     11 O          -1.7280   -0.6720  -10.4490 O.3     1  UNL1       -0.3847
     12 C          -0.5180    0.5410   -8.6920 C.3     1  UNL1        0.1667
     13 N           0.8950    0.4490   -9.0630 N.ar    1  UNL1       -0.2855
     14 C           1.8890   -0.1180   -8.3220 C.ar    1  UNL1        0.1004
     15 N           3.0230   -0.0240   -8.9530 N.ar    1  UNL1       -0.2306
     16 C           2.8300    0.6060  -10.1360 C.ar    1  UNL1        0.1473
     17 C           3.6630    0.9790  -11.2050 C.ar    1  UNL1        0.1472
     18 N           5.0180    0.6980  -11.1780 N.pl3   1  UNL1       -0.3413
     19 N           3.1190    1.6070  -12.2420 N.ar    1  UNL1       -0.2188
     20 C           1.8270    1.8780  -12.2770 C.ar    1  UNL1        0.1205
     21 N           1.0100    1.5490  -11.2990 N.ar    1  UNL1       -0.2159
     22 C           1.4620    0.9140  -10.2230 C.ar    1  UNL1        0.1674
     23 N          -1.9330    0.3600    8.3210 N.ar    1  UNL1       -0.1733
     24 C          -2.8020    1.0330    9.0700 C.ar    1  UNL1        0.3505
     25 O          -3.9700    1.0430    8.7210 O.2     1  UNL1       -0.2446
     26 N          -2.4740    1.7010   10.1850 N.ar    1  UNL1       -0.2717
     27 C          -1.1970    1.7340   10.6340 C.ar    1  UNL1        0.2817
     28 O          -0.8970    2.3400   11.6440 O.2     1  UNL1       -0.2653
     29 C          -0.1840    1.0030    9.8420 C.ar    1  UNL1        0.1712
     30 N           1.0780    0.9680   10.1850 N.ar    1  UNL1       -0.2368
     31 C           1.9690    0.2950    9.4460 C.ar    1  UNL1        0.0886
     32 C           3.3240    0.2700    9.8330 C.ar    1  UNL1       -0.0311
     33 C           4.2320   -0.4120    9.0820 C.ar    1  UNL1       -0.0454
     34 C           5.6790   -0.4340    9.5020 C.3     1  UNL1       -0.0394
     35 C           3.8410   -1.0850    7.9300 C.ar    1  UNL1       -0.0455
     36 C           4.8660   -1.8320    7.1160 C.3     1  UNL1       -0.0394
     37 C           2.5230   -1.0820    7.5290 C.ar    1  UNL1       -0.0329
     38 C           1.5720   -0.3930    8.2780 C.ar    1  UNL1        0.0694
     39 N           0.2530   -0.3820    7.8770 N.ar    1  UNL1       -0.3195
     40 C          -0.6490    0.3010    8.6340 C.ar    1  UNL1        0.1705
     41 C          -0.1680   -1.0930    6.6680 C.3     1  UNL1        0.0538
     42 C          -0.0700   -0.1530    5.4640 C.3     1  UNL1        0.1014
     43 O          -0.9190    0.9770    5.6730 O.3     1  UNL1       -0.3874
     44 C          -0.5110   -0.8950    4.2010 C.3     1  UNL1        0.1106
     45 O           0.3370   -2.0260    3.9920 O.3     1  UNL1       -0.3865
     46 C          -0.4130    0.0440    2.9970 C.3     1  UNL1        0.1073
     47 O          -1.2620    1.1740    3.2060 O.3     1  UNL1       -0.3868
     48 C          -0.8540   -0.6970    1.7340 C.3     1  UNL1        0.0875
     49 O          -0.7630    0.1790    0.6100 O.3     1  UNL1       -0.2837
     50 P          -1.2390   -0.6620   -0.6770 P.3     1  UNL1        0.4835
     51 O          -0.3540   -1.8350   -0.8530 O.2     1  UNL1       -0.2269
     52 O          -2.7540   -1.1600   -0.4620 O.3     1  UNL1       -0.3022
     53 O          -1.1610    0.2700   -1.9870 O.3     1  UNL1       -0.1861
     54 H           0.2120   -1.5640   -3.5310 H       1  UNL1        0.2220
     55 H          -1.3740   -1.4680   -5.7120 H       1  UNL1        0.0592
     56 H          -3.0520   -0.9420   -5.4370 H       1  UNL1        0.0592
     57 H          -2.6590    1.0410   -6.8900 H       1  UNL1        0.0647
     58 H          -2.6740   -1.7480   -7.7440 H       1  UNL1        0.0647
     59 H          -3.8450   -0.7820   -9.4900 H       1  UNL1        0.2100
     60 H          -0.6530   -1.6300   -8.9440 H       1  UNL1        0.0665
     61 H          -2.1900   -1.5010  -10.6360 H       1  UNL1        0.2101
     62 H          -0.9780    1.4160   -9.1500 H       1  UNL1        0.0866
     63 H           1.7540   -0.5770   -7.3540 H       1  UNL1        0.1030
     64 H           5.5820    0.9600  -11.9220 H       1  UNL1        0.1438
     65 H           5.4030    0.2390  -10.4150 H       1  UNL1        0.1438
     66 H           1.4270    2.3910  -13.1390 H       1  UNL1        0.1048
     67 H          -3.1640    2.1690   10.6790 H       1  UNL1        0.1735
     68 H           3.6410    0.7920   10.7230 H       1  UNL1        0.0642
     69 H           5.8530   -1.2850   10.1620 H       1  UNL1        0.0278
     70 H           6.3130   -0.5230    8.6200 H       1  UNL1        0.0278
     71 H           5.9190    0.4880   10.0300 H       1  UNL1        0.0278
     72 H           5.2850   -1.1670    6.3610 H       1  UNL1        0.0278
     73 H           5.6620   -2.1850    7.7720 H       1  UNL1        0.0278
     74 H           4.3930   -2.6840    6.6280 H       1  UNL1        0.0278
     75 H           2.2280   -1.6090    6.6340 H       1  UNL1        0.0641
     76 H           0.4780   -1.9550    6.5080 H       1  UNL1        0.0519
     77 H          -1.1980   -1.4280    6.7840 H       1  UNL1        0.0519
     78 H           0.9590    0.1820    5.3480 H       1  UNL1        0.0638
     79 H          -1.8190    0.6370    5.7710 H       1  UNL1        0.2100
     80 H          -1.5410   -1.2310    4.3170 H       1  UNL1        0.0646
     81 H           1.2370   -1.6860    3.8940 H       1  UNL1        0.2100
     82 H           0.6160    0.3790    2.8810 H       1  UNL1        0.0643
     83 H          -2.1620    0.8340    3.3040 H       1  UNL1        0.2100
     84 H          -0.2070   -1.5600    1.5750 H       1  UNL1        0.0592
     85 H          -1.8840   -1.0330    1.8500 H       1  UNL1        0.0592
     86 H          -3.2960   -0.3670   -0.3510 H       1  UNL1        0.2220
@<TRIPOS>BOND
     1     1     2    2
     2     1     3    1
     3     1     4    1
     4     1    53    1
     5     3    54    1
     6     4     5    1
     7     5     6    1
     8     5    55    1
     9     5    56    1
    10     6     7    1
    11     6     8    1
    12     6    57    1
    13     7    12    1
    14     8     9    1
    15     8    10    1
    16     8    58    1
    17     9    59    1
    18    10    11    1
    19    10    12    1
    20    10    60    1
    21    11    61    1
    22    12    13    1
    23    12    62    1
    24    13    14   ar
    25    13    22   ar
    26    14    15   ar
    27    14    63    1
    28    15    16   ar
    29    16    17   ar
    30    16    22   ar
    31    17    18    1
    32    17    19   ar
    33    18    64    1
    34    18    65    1
    35    19    20   ar
    36    20    21   ar
    37    20    66    1
    38    21    22   ar
    39    23    24   ar
    40    23    40   ar
    41    24    25    2
    42    24    26   ar
    43    26    27   ar
    44    26    67    1
    45    27    28    2
    46    27    29   ar
    47    29    30   ar
    48    29    40   ar
    49    30    31   ar
    50    31    32   ar
    51    31    38   ar
    52    32    33   ar
    53    32    68    1
    54    33    34    1
    55    33    35   ar
    56    34    69    1
    57    34    70    1
    58    34    71    1
    59    35    36    1
    60    35    37   ar
    61    36    72    1
    62    36    73    1
    63    36    74    1
    64    37    38   ar
    65    37    75    1
    66    38    39   ar
    67    39    40   ar
    68    39    41    1
    69    41    42    1
    70    41    76    1
    71    41    77    1
    72    42    43    1
    73    42    44    1
    74    42    78    1
    75    43    79    1
    76    44    45    1
    77    44    46    1
    78    44    80    1
    79    45    81    1
    80    46    47    1
    81    46    48    1
    82    46    82    1
    83    47    83    1
    84    48    49    1
    85    48    84    1
    86    48    85    1
    87    49    50    1
    88    50    51    2
    89    50    52    1
    90    50    53    1
    91    52    86    1
